14

     H  -1.4945361   0.0586697  -1.5381737
     C  -1.5671824   0.0042367  -0.4545324
     C  -0.6564125   0.9166626   0.2981497
     C  -2.4239027  -0.8270717   0.1198497
     H  -0.7436064   0.7446635   1.3787030
     H  -0.9165911   1.9600913   0.1024455
     H  -2.5008645  -0.9007546   1.2007008
     H  -3.0848329  -1.4574720  -0.4633901
     O   0.6967858   0.7988570  -0.1165230
     C   1.3104868  -0.3571248   0.2228306
     C   2.5649755  -0.6223620  -0.1130529
     H   3.0127461  -1.5567771   0.1931376
     H   3.1560269   0.0780116  -0.6895424
     H   0.7056584  -1.0594769   0.7933113
14

     H  -1.4913011   0.0581121  -1.5477085
     C  -1.5503158   0.0030006  -0.4634267
     C  -0.6681537   0.9477822   0.2815592
     C  -2.3528446  -0.8709487   0.1237242
     H  -0.7730506   0.8001086   1.3643146
     H  -0.9307031   1.9839375   0.0547219
     H  -2.4106293  -0.9447695   1.2056811
     H  -2.9871228  -1.5385914  -0.4475318
     O   0.6939038   0.8245717  -0.1055918
     C   1.2891330  -0.3350096   0.2540498
     C   2.5129014  -0.6574246  -0.1344708
     H   2.9532417  -1.5843664   0.2023548
     H   3.0897666  -0.0090549  -0.7816497
     H   0.6967265  -0.9857504   0.8941321
14

     H  -1.5056342   0.0573066  -1.5499902
     C  -1.5420810   0.0002615  -0.4648074
     C  -0.6783354   0.9791000   0.2610702
     C  -2.2938649  -0.9158656   0.1281711
     H  -0.7989487   0.8710335   1.3468848
     H  -0.9409026   2.0044187  -0.0094576
     H  -2.3338150  -1.0018164   1.2102444
     H  -2.9010968  -1.6093326  -0.4422067
     O   0.6939962   0.8494795  -0.0986809
     C   1.2809281  -0.3043299   0.2913469
     C   2.4636230  -0.6981065  -0.1595856
     H   2.8978880  -1.6127902   0.2172045
     H   3.0121645  -0.1198175  -0.8924452
     H   0.7211711  -0.8910505   1.0167952
14

     H  -1.5152821   0.0569110  -1.5541385
     C  -1.5295283  -0.0036879  -0.4686163
     C  -0.6846054   0.9999536   0.2445090
     C  -2.2289526  -0.9537831   0.1353661
     H  -0.8152724   0.9121394   1.3312533
     H  -0.9561714   2.0160087  -0.0499057
     H  -2.2458811  -1.0443063   1.2177579
     H  -2.8150487  -1.6717916  -0.4264160
     O   0.6899331   0.8735054  -0.0984888
     C   1.2730640  -0.2722933   0.3288881
     C   2.4044252  -0.7351822  -0.1835684
     H   2.8522395  -1.6271774   0.2327993
     H   2.9022568  -0.2338628  -1.0041059
     H   0.7592580  -0.7810765   1.1421734
14

     H  -1.5215397   0.0467485  -1.5589440
     C  -1.5170343  -0.0112424  -0.4734925
     C  -0.6933848   1.0126680   0.2325545
     C  -2.1655366  -0.9847091   0.1475058
     H  -0.8199953   0.9253797   1.3201202
     H  -0.9744546   2.0251649  -0.0651652
     H  -2.1541610  -1.0663210   1.2306203
     H  -2.7332745  -1.7310920  -0.3952917
     O   0.6825507   0.8915997  -0.1104884
     C   1.2750622  -0.2285852   0.3633959
     C   2.3419026  -0.7719050  -0.2019029
     H   2.8129974  -1.6290214   0.2568790
     H   2.7663619  -0.3635126  -1.1111302
     H   0.8286689  -0.6440516   1.2660537
14

     H  -1.5472396   0.0468042  -1.5553815
     C  -1.5070035  -0.0167339  -0.4709693
     C  -0.6979862   1.0329033   0.2175022
     C  -2.0933767  -1.0213795   0.1606029
     H  -0.8280990   0.9630562   1.3061597
     H  -0.9893794   2.0360496  -0.0998755
     H  -2.0454385  -1.1117698   1.2418684
     H  -2.6442516  -1.7887035  -0.3702935
     O   0.6778219   0.9156548  -0.1171890
     C   1.2709345  -0.1938795   0.3873030
     C   2.2733462  -0.8104474  -0.2181341
     H   2.7589276  -1.6472494   0.2638557
     H   2.6343652  -0.4776806  -1.1827760
     H   0.8823633  -0.5322249   1.3477694
14

     H  -1.5910636   0.0592372  -1.5410260
     C  -1.5088090  -0.0177519  -0.4599355
     C  -0.7031660   1.0459329   0.2120248
     C  -2.0343409  -1.0543599   0.1755758
     H  -0.8198554   0.9860419   1.3026899
     H  -1.0005075   2.0447181  -0.1130688
     H  -1.9449094  -1.1640171   1.2524461
     H  -2.5734110  -1.8316380  -0.3528048
     O   0.6740711   0.9300852  -0.1429918
     C   1.2886996  -0.1439931   0.4069045
     C   2.2058215  -0.8543002  -0.2291158
     H   2.7194495  -1.6529696   0.2888052
     H   2.4731546  -0.6361408  -1.2550066
     H   0.9906403  -0.3681414   1.4317292
14

     H  -1.6450852   0.0726181  -1.5219891
     C  -1.5078491  -0.0192946  -0.4477705
     C  -0.7079884   1.0600447   0.2068826
     C  -1.9557709  -1.0900099   0.1906919
     H  -0.8118616   1.0083731   1.2992135
     H  -1.0171159   2.0530558  -0.1239519
     H  -1.8091382  -1.2153160   1.2594737
     H  -2.4840680  -1.8815824  -0.3272367
     O   0.6668822   0.9491724  -0.1623186
     C   1.2960729  -0.1023669   0.4160764
     C   2.1303759  -0.8927802  -0.2383621
     H   2.6662630  -1.6672658   0.2931339
     H   2.3095863  -0.7613139  -1.2976902
     H   1.0800062  -0.2370438   1.4768214
14

     H  -1.7031257   0.0833191  -1.4950960
     C  -1.5055401  -0.0217505  -0.4316680
     C  -0.7122387   1.0722163   0.2028482
     C  -1.8728970  -1.1232995   0.2045494
     H  -0.7953181   1.0321264   1.2973285
     H  -1.0399006   2.0566874  -0.1346993
     H  -1.6625746  -1.2604303   1.2607928
     H  -2.3937295  -1.9290622  -0.3007405
     O   0.6579253   0.9691825  -0.1804378
     C   1.3017681  -0.0649338   0.4191155
     C   2.0522008  -0.9268383  -0.2461657
     H   2.6061681  -1.6866146   0.2878292
     H   2.1468291  -0.8772141  -1.3234624
     H   1.1717455  -0.1243574   1.5014269
14

     H  -1.7752145   0.1088882  -1.4568814
     C  -1.5129854  -0.0173416  -0.4098200
     C  -0.7086056   1.0804884   0.2095051
     C  -1.8058919  -1.1465650   0.2179961
     H  -0.7668664   1.0328899   1.3052094
     H  -1.0453860   2.0665502  -0.1138316
     H  -1.5294417  -1.3025180   1.2561991
     H  -2.3278826  -1.9577148  -0.2766591
     O   0.6533970   0.9814666  -0.2108781
     C   1.3260029  -0.0209423   0.4101430
     C   1.9690314  -0.9725696  -0.2460359
     H   2.5471559  -1.7095573   0.2949246
     H   1.9455194  -1.0139754  -1.3274599
     H   1.3033748   0.0216750   1.5007652
14

     H  -1.8172861   0.1246115  -1.4223935
     C  -1.5081550  -0.0116932  -0.3894799
     C  -0.6998370   1.0922008   0.2137020
     C  -1.7458258  -1.1585806   0.2301154
     H  -0.7369858   1.0473305   1.3102723
     H  -1.0468468   2.0757771  -0.1060568
     H  -1.4213391  -1.3243867   1.2526407
     H  -2.2680435  -1.9747138  -0.2561759
     O   0.6565708   0.9970044  -0.2321450
     C   1.3461346   0.0084116   0.3956799
     C   1.8715348  -1.0230008  -0.2443752
     H   2.4643690  -1.7516776   0.2923616
     H   1.7362383  -1.1402614  -1.3119661
     H   1.4348353   0.1302833   1.4770805
14

     H  -1.8304097   0.1436059  -1.3980894
     C  -1.4953093   0.0020314  -0.3736097
     C  -0.6804217   1.1070227   0.2180446
     C  -1.7049473  -1.1532602   0.2411767
     H  -0.7025632   1.0648118   1.3149894
     H  -1.0305673   2.0900718  -0.0994081
     H  -1.3536786  -1.3239079   1.2535288
     H  -2.2300834  -1.9712909  -0.2395777
     O   0.6724282   1.0107555  -0.2453199
     C   1.3676620   0.0198758   0.3762394
     C   1.7601739  -1.0820514  -0.2413064
     H   2.3556372  -1.8181356   0.2831264
     H   1.5118495  -1.2541234  -1.2807140
     H   1.5718624   0.2010472   1.4335616
14

     H  -1.8147502   0.1533746  -1.3903614
     C  -1.4744092   0.0180102  -0.3671098
     C  -0.6586008   1.1251191   0.2171299
     C  -1.6727656  -1.1363849   0.2533385
     H  -0.6823316   1.0915889   1.3141172
     H  -1.0039988   2.1070127  -0.1090012
     H  -1.3140280  -1.3002504   1.2643608
     H  -2.1951132  -1.9599828  -0.2204754
     O   0.6974878   1.0240019  -0.2440408
     C   1.3811050   0.0112445   0.3580493
     C   1.6455892  -1.1377035  -0.2419490
     H   2.2283855  -1.8954541   0.2655480
     H   1.3029522  -1.3305204  -1.2507175
     H   1.6856381   0.2148339   1.3865747
14

     H  -1.8017304   0.1043452  -1.3892825
     C  -1.4499227   0.0048356  -0.3657389
     C  -0.6706756   1.1461600   0.1956175
     C  -1.5824437  -1.1492088   0.2728526
     H  -0.7227374   1.1593174   1.2914272
     H  -1.0157830   2.1089586  -0.1813605
     H  -1.2083983  -1.2793231   1.2833284
     H  -2.0625737  -2.0062976  -0.1858477
     O   0.7028544   1.0474168  -0.2212247
     C   1.3614526   0.0042554   0.3548598
     C   1.5568653  -1.1506825  -0.2601717
     H   2.1173427  -1.9401695   0.2255042
     H   1.1773482  -1.3235860  -1.2584162
     H   1.7053009   0.1825313   1.3750055
14

     H  -1.8411972   0.0332879  -1.3642093
     C  -1.4442585  -0.0308887  -0.3549346
     C  -0.7096623   1.1559261   0.1713501
     C  -1.4505524  -1.1892165   0.2915359
     H  -0.7939438   1.2189878   1.2635217
     H  -1.0605386   2.0923519  -0.2615801
     H  -1.0317697  -1.2804809   1.2875626
     H  -1.8713539  -2.0890525  -0.1431885
     O   0.6862612   1.0805418  -0.1967165
     C   1.3394322   0.0179925   0.3483806
     C   1.4975317  -1.1352182  -0.2830008
     H   2.0399381  -1.9445054   0.1892812
     H   1.1091145  -1.2853337  -1.2812528
     H   1.6968915   0.1725516   1.3680732
14

     H  -1.8246253  -0.0295200  -1.3530171
     C  -1.4231290  -0.0570614  -0.3443225
     C  -0.7389069   1.1599155   0.1651867
     C  -1.3232182  -1.2093451   0.3076894
     H  -0.8290776   1.2418967   1.2546094
     H  -1.0998437   2.0808925  -0.2901243
     H  -0.9030882  -1.2574295   1.3052573
     H  -1.6699832  -2.1458313  -0.1147484
     O   0.6749219   1.1077176  -0.1879543
     C   1.3272375   0.0339120   0.3271037
     C   1.4000309  -1.1371122  -0.2912454
     H   1.9306219  -1.9614215   0.1682702
     H   0.9675832  -1.2864870  -1.2706647
     H   1.7421206   0.1812080   1.3257630
14

     H  -1.7890341  -0.1710334  -1.3471493
     C  -1.4122347  -0.1410250  -0.3294897
     C  -0.8509821   1.1260321   0.1630081
     C  -1.1303832  -1.2737245   0.3144773
     H  -0.9231375   1.2289108   1.2491097
     H  -1.2421802   2.0174666  -0.3213641
     H  -0.7555992  -1.2697315   1.3305823
     H  -1.3371794  -2.2484989  -0.1130140
     O   0.6294592   1.1569316  -0.1858762
     C   1.3108622   0.1057942   0.3112459
     C   1.3661353  -1.0795178  -0.2945606
     H   1.9019978  -1.9015166   0.1645630
     H   0.9657929  -1.2263696  -1.2879812
     H   1.7218315   0.2411021   1.3144155
14

     H  -1.7434910  -0.2911774  -1.3493639
     C  -1.4065330  -0.2205525  -0.3200458
     C  -1.0168837   1.0670542   0.1726139
     C  -0.9478676  -1.3241757   0.3086818
     H  -1.0075593   1.1883300   1.2534664
     H  -1.4040434   1.9401671  -0.3408912
     H  -0.6613927  -1.2994449   1.3524424
     H  -1.0475775  -2.3119484  -0.1272899
     O   0.6265939   1.2038773  -0.1936163
     C   1.3021121   0.1890158   0.3018457
     C   1.3404378  -1.0249386  -0.2871052
     H   1.8850456  -1.8373290   0.1792001
     H   1.0200015  -1.1585452  -1.3110697
     H   1.6914357   0.3043188   1.3208483
14

     H  -1.7213898  -0.3221164  -1.3536724
     C  -1.4042046  -0.2374203  -0.3191105
     C  -1.1307036   1.0345656   0.1857864
     C  -0.8517166  -1.3354505   0.2987429
     H  -1.0219301   1.1655427   1.2567268
     H  -1.4838379   1.9123606  -0.3400970
     H  -0.6470045  -1.3178619   1.3626641
     H  -0.9430327  -2.3249677  -0.1349992
     O   0.6741892   1.2223198  -0.2034952
     C   1.2999326   0.2269300   0.2992934
     C   1.2924117  -1.0216355  -0.2761111
     H   1.8448366  -1.8307710   0.1899086
     H   1.0490272  -1.1285685  -1.3247139
     H   1.6808246   0.3192152   1.3281562
14

     H  -1.7221480  -0.3510481  -1.3462021
     C  -1.3999009  -0.2511827  -0.3145229
     C  -1.2265974   1.0026024   0.1986206
     C  -0.7474397  -1.3439100   0.2880328
     H  -1.0220572   1.1485298   1.2522799
     H  -1.5723750   1.8798390  -0.3320824
     H  -0.6226586  -1.3379316   1.3660510
     H  -0.8730323  -2.3369820  -0.1305028
     O   0.7111116   1.2401394  -0.2133068
     C   1.2975898   0.2636782   0.2935292
     C   1.2319793  -1.0239974  -0.2646458
     H   1.8143157  -1.8189157   0.1928812
     H   1.0755632  -1.1053613  -1.3336993
     H   1.6902931   0.3476357   1.3231700
14

     H  -1.7437688  -0.3784338  -1.3272169
     C  -1.3927429  -0.2582254  -0.3061999
     C  -1.3290320   0.9731899   0.2199059
     C  -0.6140451  -1.3413902   0.2686692
     H  -1.0199511   1.1416205   1.2441065
     H  -1.7076197   1.8409768  -0.3055525
     H  -0.5798503  -1.3492478   1.3577179
     H  -0.8185705  -2.3387042  -0.1167129
     O   0.7683419   1.2611253  -0.2304336
     C   1.2994967   0.2913382   0.2849173
     C   1.1216727  -1.0420398  -0.2454294
     H   1.7522128  -1.8138173   0.1931800
     H   1.0747856  -1.0892306  -1.3306298
     H   1.7392106   0.3690864   1.3005697
14

     H  -1.7847404  -0.3584277  -1.3106376
     C  -1.3940013  -0.2249108  -0.3057921
     C  -1.4000303   0.9885996   0.2373826
     C  -0.5598168  -1.3185446   0.2486725
     H  -1.0112094   1.1740135   1.2310857
     H  -1.8227648   1.8454108  -0.2727938
     H  -0.5783850  -1.3297543   1.3413211
     H  -0.8502144  -2.3086691  -0.1060187
     O   0.8765552   1.2592538  -0.2443794
     C   1.3157565   0.2660314   0.2824015
     C   1.0016751  -1.0849800  -0.2245970
     H   1.6402347  -1.8629849   0.1986152
     H   1.0260029  -1.1122524  -1.3138240
     H   1.8099501   0.3250528   1.2761022
14

     H  -1.8232678  -0.2929781  -1.3155117
     C  -1.4099915  -0.1560983  -0.3196547
     C  -1.4602567   1.0421921   0.2446859
     C  -0.5996108  -1.2787202   0.2374095
     H  -1.0302014   1.2334792   1.2213044
     H  -1.9225312   1.8884489  -0.2485202
     H  -0.6395568  -1.2785857   1.3309967
     H  -0.9607018  -2.2529087  -0.0989271
     O   1.0479832   1.2256093  -0.2497695
     C   1.3477556   0.1955540   0.2921930
     C   0.8985399  -1.1341769  -0.2114634
     H   1.4963326  -1.9491115   0.2036523
     H   0.9512991  -1.1523848  -1.3013743
     H   1.8651387   0.2036940   1.2770145
14

     H  -1.8328095  -0.2546215  -1.3362379
     C  -1.4284132  -0.1123711  -0.3371691
     C  -1.5390509   1.0736069   0.2419858
     C  -0.6399116  -1.2440794   0.2359357
     H  -1.1149842   1.2725819   1.2204913
     H  -2.0366590   1.9022682  -0.2475541
     H  -0.6858135  -1.2243038   1.3293015
     H  -1.0383682  -2.2100306  -0.0831791
     O   1.2048814   1.1951024  -0.2484046
     C   1.3730830   0.1443766   0.3089299
     C   0.8421253  -1.1550151  -0.2099196
     H   1.4063584  -1.9999662   0.1934079
     H   0.9007584  -1.1604962  -1.3005653
     H   1.8554790   0.1087016   1.3118820
14

     H  -1.8216914  -0.2405108  -1.3618936
     C  -1.4493710  -0.0921028  -0.3510160
     C  -1.6174575   1.0833936   0.2349953
     C  -0.6632345  -1.2167930   0.2396302
     H  -1.2304246   1.2855957   1.2289785
     H  -2.1326295   1.8964285  -0.2599978
     H  -0.7058926  -1.1768175   1.3328123
     H  -1.0745130  -2.1834895  -0.0603060
     O   1.3248522   1.1712526  -0.2441773
     C   1.3924799   0.1164352   0.3242339
     C   0.8161945  -1.1555150  -0.2145457
     H   1.3604151  -2.0213644   0.1733622
     H   0.8716880  -1.1446316  -1.3050944
     H   1.8216004   0.0533260   1.3495736
14

     H  -1.8102281  -0.2302325  -1.3808128
     C  -1.4642607  -0.0797290  -0.3609434
     C  -1.6769151   1.0862282   0.2300766
     C  -0.6773396  -1.1966940   0.2442141
     H  -1.3192054   1.2881343   1.2352561
     H  -2.2030533   1.8896810  -0.2704415
     H  -0.7162387  -1.1368699   1.3366661
     H  -1.0990004  -2.1661831  -0.0354047
     O   1.4083693   1.1548969  -0.2386937
     C   1.4100644   0.0986585   0.3309738
     C   0.7967680  -1.1534427  -0.2185102
     H   1.3285472  -2.0322791   0.1556193
     H   0.8467435  -1.1344031  -1.3088409
     H   1.8106316   0.0168580   1.3675084
14

     H  -1.7965454  -0.2371160  -1.3913393
     C  -1.4735813  -0.0788868  -0.3645567
     C  -1.7282461   1.0799265   0.2223750
     C  -0.6783879  -1.1829359   0.2520701
     H  -1.3966224   1.2894016   1.2350149
     H  -2.2654069   1.8693611  -0.2885529
     H  -0.7072053  -1.1065994   1.3439744
     H  -1.1018549  -2.1561781  -0.0097663
     O   1.4600073   1.1479130  -0.2316278
     C   1.4218809   0.0911221   0.3349766
     C   0.7907486  -1.1461763  -0.2268819
     H   1.3198921  -2.0343412   0.1312148
     H   0.8311993  -1.1109139  -1.3177323
     H   1.8008329  -0.0036642   1.3777990
14

     H  -1.7751566  -0.2215023  -1.4094298
     C  -1.4808256  -0.0688361  -0.3731443
     C  -1.7725494   1.0781888   0.2200672
     C  -0.6882225  -1.1700020   0.2520767
     H  -1.4721410   1.2805707   1.2436055
     H  -2.3117679   1.8634011  -0.2953318
     H  -0.7180789  -1.0853620   1.3432469
     H  -1.1162701  -2.1432675  -0.0027182
     O   1.5210872   1.1333425  -0.2293488
     C   1.4282167   0.0831875   0.3426936
     C   0.7798146  -1.1425270  -0.2272053
     H   1.3011112  -2.0370983   0.1258475
     H   0.8218325  -1.1019123  -1.3172536
     H   1.7709949  -0.0155945   1.3980935
14

     H  -1.7393019  -0.1799470  -1.4355312
     C  -1.4811008  -0.0505652  -0.3864496
     C  -1.8006098   1.0801135   0.2239931
     C  -0.7048922  -1.1629026   0.2396356
     H  -1.5378257   1.2581555   1.2623707
     H  -2.3271563   1.8746634  -0.2903075
     H  -0.7515535  -1.0880389   1.3310145
     H  -1.1360895  -2.1307064  -0.0310544
     O   1.5806562   1.1110255  -0.2344816
     C   1.4197377   0.0807588   0.3577997
     C   0.7689940  -1.1418300  -0.2160446
     H   1.2803958  -2.0371532   0.1503122
     H   0.8315591  -1.1070811  -1.3053124
     H   1.7007614  -0.0008477   1.4330880
14

     H  -1.6947861  -0.1310835  -1.4643067
     C  -1.4827335  -0.0289688  -0.4018506
     C  -1.8402057   1.0809713   0.2256773
     C  -0.7249466  -1.1529269   0.2261893
     H  -1.6258673   1.2306325   1.2795993
     H  -2.3525511   1.8849143  -0.2884837
     H  -0.7907810  -1.0877396   1.3172714
     H  -1.1591607  -2.1147451  -0.0614288
     O   1.6600986   1.0801683  -0.2379834
     C   1.4092464   0.0803581   0.3745671
     C   0.7548571  -1.1387495  -0.2031186
     H   1.2555758  -2.0341349   0.1787778
     H   0.8410539  -1.1122027  -1.2910613
     H   1.6094281   0.0250827   1.4696594
14

     H  -1.6509936  -0.0865323  -1.4889290
     C  -1.4856056  -0.0092906  -0.4160978
     C  -1.8881817   1.0777153   0.2242070
     C  -0.7426140  -1.1416206   0.2149668
     H  -1.7230923   1.2013582   1.2909972
     H  -2.3915124   1.8873073  -0.2901801
     H  -0.8268332  -1.0846405   1.3060645
     H  -1.1784206  -2.0991565  -0.0880804
     O   1.7448511   1.0461415  -0.2386997
     C   1.3999707   0.0844473   0.3887869
     C   0.7410113  -1.1319284  -0.1907477
     H   1.2334335  -2.0257387   0.2058657
     H   0.8486613  -1.1145221  -1.2769937
     H   1.5176924   0.0626132   1.4968104
14

     H  -1.6051357  -0.0415618  -1.5101419
     C  -1.4889216   0.0083395  -0.4290324
     C  -1.9345113   1.0729492   0.2208993
     C  -0.7597625  -1.1317438   0.2040743
     H  -1.8213753   1.1686361   1.2966583
     H  -2.4246709   1.8896418  -0.2949137
     H  -0.8618425  -1.0824149   1.2932640
     H  -1.1940974  -2.0847618  -0.1129788
     O   1.8277938   1.0096546  -0.2377452
     C   1.3882190   0.0944675   0.3998126
     C   0.7293472  -1.1237795  -0.1766222
     H   1.2159358  -2.0132135   0.2389615
     H   0.8601419  -1.1213246  -1.2606399
     H   1.4177329   0.1176531   1.5138155
14

     H  -1.5672935  -0.0064505  -1.5249146
     C  -1.4945734   0.0216745  -0.4391007
     C  -1.9871596   1.0629147   0.2150880
     C  -0.7720750  -1.1207022   0.1975443
     H  -1.9202892   1.1359688   1.2965171
     H  -2.4726921   1.8811491  -0.3025965
     H  -0.8880931  -1.0757646   1.2855589
     H  -1.2035832  -2.0721451  -0.1287683
     O   1.9081826   0.9738776  -0.2342004
     C   1.3809812   0.1082607   0.4060933
     C   0.7197755  -1.1117732  -0.1650529
     H   1.2037342  -1.9960633   0.2656998
     H   0.8679249  -1.1230619  -1.2468670
     H   1.3320705   0.1788706   1.5174273
14

     H  -1.5403245   0.0219423  -1.5348405
     C  -1.5028948   0.0307984  -0.4471524
     C  -2.0351294   1.0526199   0.2086618
     C  -0.7816858  -1.1110194   0.1933032
     H  -2.0065349   1.1058123   1.2931515
     H  -2.5171339   1.8726828  -0.3111877
     H  -0.9093364  -1.0681780   1.2807196
     H  -1.2083699  -2.0631407  -0.1386615
     O   1.9813286   0.9386215  -0.2305102
     C   1.3741545   0.1258613   0.4084189
     C   0.7125834  -1.0987859  -0.1533422
     H   1.1944502  -1.9772957   0.2939288
     H   0.8751969  -1.1278141  -1.2325949
     H   1.2545539   0.2524793   1.5087325
14

     H  -1.5183415   0.0409649  -1.5406822
     C  -1.5134335   0.0377104  -0.4516025
     C  -2.0905218   1.0357481   0.2002926
     C  -0.7872596  -1.0981765   0.1938252
     H  -2.0970016   1.0750205   1.2851558
     H  -2.5782573   1.8500163  -0.3223320
     H  -0.9190386  -1.0522700   1.2803075
     H  -1.2091915  -2.0534937  -0.1355057
     O   2.0523131   0.9053103  -0.2237911
     C   1.3744531   0.1439238   0.4067348
     C   0.7061732  -1.0823029  -0.1469199
     H   1.1919483  -1.9548080   0.3071712
     H   0.8782365  -1.1194133  -1.2249895
     H   1.1917403   0.3134877   1.4934893
14

     H  -1.5046151   0.0541161  -1.5426983
     C  -1.5247234   0.0417678  -0.4543262
     C  -2.1487847   1.0159077   0.1913978
     C  -0.7902274  -1.0838561   0.1984816
     H  -2.1827533   1.0450983   1.2765988
     H  -2.6491563   1.8185011  -0.3370718
     H  -0.9235854  -1.0342494   1.2842943
     H  -1.2083752  -2.0416095  -0.1270102
     O   2.1195463   0.8731656  -0.2159817
     C   1.3780544   0.1619650   0.4017130
     C   0.7018914  -1.0629433  -0.1432954
     H   1.1922020  -1.9318771   0.3145509
     H   0.8744963  -1.1101101  -1.2202340
     H   1.1464352   0.3818856   1.4697787
14

     H  -1.4942598   0.0700269  -1.5428856
     C  -1.5406037   0.0454190  -0.4552145
     C  -2.2195990   0.9874274   0.1832806
     C  -0.7889733  -1.0650938   0.2038585
     H  -2.2834095   1.0035425   1.2672175
     H  -2.7369934   1.7753923  -0.3510791
     H  -0.9199161  -1.0079471   1.2896488
     H  -1.2015657  -2.0293641  -0.1116033
     O   2.1868256   0.8430504  -0.2077425
     C   1.3909003   0.1800001   0.3962805
     C   0.7010863  -1.0404907  -0.1428993
     H   1.1942671  -1.9084554   0.3142204
     H   0.8731239  -1.0929469  -1.2203605
     H   1.1195863   0.4396120   1.4454614