104
Complex 4 of 10.1002/anie.201412401 (taken from ESI); charge: +1, ms2: 0 (singlet)
Au   0.695123 -0.074203 -0.047985
P    -0.955404 1.444063 0.794411
P    -1.049560 -1.656321 -0.355180
N    -1.373183 1.923362 2.339095
N    -0.671528 2.964503 0.223358
B    -2.535007 0.657980 -1.645526
H    -1.494074 0.851139 -2.174989
B    -3.533421 1.938702 -0.913955
H    -3.164425 3.053737 -1.015314
B    -4.130580 1.334594 0.642272
H    -4.158673 2.042253 1.585837
B    -5.188655 1.329646 -0.780608
H    -6.110494 2.070792 -0.848733
B    -5.225973 -0.318451 -1.437660
H    -6.175707 -0.771563 -1.981982
B    -4.190375 -1.340073 -0.423278
H    -4.264484 -2.501345 -0.225031
B    -3.593793 -0.730800 -1.981097
H    -3.273125 -1.482130 -2.828724
B    -3.507257 -0.314983 0.862337
H    -3.089422 -0.744952 1.875066
B    -4.191350 0.922471 -2.207941
H    -4.389268 1.357896 -3.291048
B    -5.174926 -0.068872 0.331856
H    -6.073714 -0.338077 1.054026
C    -2.604453 0.883876 0.045135
C    -2.643185 -0.668335 -0.571993
C    -1.106761 3.366540 2.539867
H    -0.112262 3.524410 2.973337
H    -1.860593 3.785723 3.209774
C    -1.197976 3.991517 1.145235
H    -2.233884 4.241170 0.891923
H    -0.589800 4.894151 1.075232
C    -1.324054 0.988296 3.487794
H    -1.531704 0.002530 3.060970
C    -2.436469 1.308628 4.485930
H    -2.277665 2.285805 4.952213
H    -2.446473 0.556090 5.279474
H    -3.410277 1.310491 3.989974
C    0.060967 0.949247 4.141071
H    0.830046 0.718384 3.396891
H    0.088777 0.179233 4.917334
H    0.309761 1.907323 4.606274
C    0.242194 3.284264 -0.897659
H    0.427247 2.326355 -1.397706
C    -0.419474 4.232456 -1.897079
H    -1.341679 3.801581 -2.293744
H    0.264388 4.424664 -2.728891
H    -0.656987 5.192462 -1.426923
C    1.580509 3.814361 -0.377761
H    1.449797 4.760300 0.157512
H    2.261418 3.990737 -1.215266
H    2.040889 3.087375 0.297028
N    -1.166346 -2.806371 -1.566728
C    -1.089175 -4.171223 -0.995676
H    -0.054088 -4.532785 -0.980373
H    -1.696222 -4.851535 -1.596789
C    -1.644129 -4.046539 0.425976
H    -2.733993 -4.128068 0.431422
H    -1.230742 -4.813354 1.081823
C    -0.470139 -2.545140 2.171713
H    -0.271870 -1.468233 2.242394
C    -1.320025 -2.967046 3.368642
H    -2.261938 -2.412348 3.394026
H    -0.774408 -2.781778 4.298230
H    -1.552177 -4.035828 3.322805
C    0.879187 -3.268526 2.116529
H    0.745128 -4.350492 2.020843
H    1.443447 -3.079442 3.034421
H    1.471552 -2.911320 1.268331
C    -0.584443 -2.539581 -2.910050
H    -0.758994 -1.471958 -3.091100
C    -1.330289 -3.337466 -3.979322
H    -1.155685 -4.410867 -3.855175
H    -0.966095 -3.050604 -4.969733
H    -2.405604 -3.150166 -3.932399
C    0.924553 -2.809995 -2.947619
H    1.440348 -2.261156 -2.153495
H    1.334451 -2.491788 -3.910508
H    1.134734 -3.877015 -2.828185
N    -1.237045 -2.705463 0.910703
C    2.620341 0.130898 -0.519473
C    2.997843 0.751676 -1.777654
C    4.208872 1.471934 -1.906945
C    2.108802 0.750489 -2.878265
C    4.506112 2.159931 -3.079012
H    4.887824 1.525672 -1.063063
C    2.417569 1.417169 -4.054277
H    1.177771 0.196594 -2.791305
C    3.618505 2.130430 -4.157346
H    5.429368 2.726220 -3.150805
H    1.726747 1.390394 -4.890967
H    3.855668 2.664348 -5.072145
C    3.652485 -0.349579 0.385526
C    4.849031 -0.924299 -0.102627
C    3.446915 -0.330444 1.783033
C    5.788154 -1.459292 0.773765
H    5.012365 -0.983665 -1.173429
C    4.398949 -0.835722 2.656563
H    2.533496 0.117546 2.164087
C    5.572950 -1.409122 2.153461
H    6.690797 -1.916935 0.381117
H    4.231071 -0.790726 3.728038
H    6.312606 -1.818231 2.834452
