32

C -0.438772 0.280288 -0.341993
C -1.176380 -0.704773 0.544486
C -2.631685 -0.275210 0.447667
C -2.959823 0.891570 1.249108
O -2.087694 1.481130 1.940270
C -4.391429 1.428418 1.293791
C -3.582665 -0.958795 -0.398128
O -4.782497 -0.610702 -0.553163
C -3.124349 -2.227847 -1.144696
C -0.508841 0.134841 -1.798929
C -0.619813 1.164182 -2.675124
H -0.517386 1.317820 0.027106
H -0.820562 -0.605585 1.589685
H -1.002674 -1.748470 0.212839
H -4.720665 1.764480 0.286768
H -5.120310 0.644141 1.591309
H -4.417047 2.277225 2.012084
H -2.323767 -2.012002 -1.885738
H -2.727800 -3.003836 -0.450923
H -4.001611 -2.643259 -1.683614
H -0.456120 -0.898081 -2.192655
H -0.664471 2.211061 -2.322608
H -0.661588 0.991062 -3.765226
Fe 1.961196 0.081263 0.337690
N 1.420570 0.522617 1.853498
C 1.668907 -1.512298 -0.428374
C 2.161711 1.310894 -0.947925
C 3.702889 -0.187271 0.588302
O 1.482261 -2.558666 -0.912641
O 2.299308 2.130880 -1.765949
O 1.146280 0.853653 2.946745
O 4.842564 -0.356788 0.764957
